@<TRIPOS>MOLECULE
PZ_II_028_A1_B1_24
35 38 1 0 0 
SMALL
NO_CHARGES


@<TRIPOS>ATOM
  1 C1       0.4820    23.8380   119.8940 C.ar  1 UNK   0.0000 
  2 C2      -0.3500    23.9770   121.0210 C.ar  1 UNK   0.0000 
  3 C3      -0.1080    24.9790   121.9730 C.ar  1 UNK   0.0000 
  4 C4       1.0360    25.7890   121.8660 C.ar  1 UNK   0.0000 
  5 C5       1.9000    25.6230   120.7650 C.ar  1 UNK   0.0000 
  6 C6       1.5910    24.6850   119.7390 C.ar  1 UNK   0.0000 
  7 C7       3.5490    25.3800   118.4550 C.2   1 UNK   0.0000 
  8 N8       4.8750    27.5890   120.9090 N.am  1 UNK   0.0000 
  9 N9       3.7030    27.1550   121.4660 N.2   1 UNK   0.0000 
 10 C10      3.1490    26.3790   120.6180 C.2   1 UNK   0.0000 
 11 C11      3.9010    26.2380   119.4300 C.2   1 UNK   0.0000 
 12 C12      5.0160    27.1320   119.6340 C.2   1 UNK   0.0000 
 13 C13      7.6690    29.8450   123.2830 C.ar  1 UNK   0.0000 
 14 C14      7.8810    29.6910   121.9030 C.ar  1 UNK   0.0000 
 15 C15      6.9900    28.9460   121.1090 C.ar  1 UNK   0.0000 
 16 C16      5.8360    28.3470   121.6700 C.ar  1 UNK   0.0000 
 17 C17      5.6380    28.4930   123.0660 C.ar  1 UNK   0.0000 
 18 C18      6.5370    29.2270   123.8630 C.ar  1 UNK   0.0000 
 19 N23      2.4130    24.5840   118.5980 N.pl3 1 UNK   0.0000 
 20 CL26    -1.2230    25.2080   123.2640 Cl    1 UNK   0.0000 
 21 O29      5.8780    27.4300   118.8060 O.2   1 UNK   0.0000 
 22 O30      8.5900    30.5930   123.9840 O.3   1 UNK   0.0000 
 23 C31      8.4990    30.5930   125.4000 C.3   1 UNK   0.0000 
 24 H19      8.7390    30.1560   121.4420 H     1 UNK   0.0000 
 25 H20      7.2310    28.8640   120.0630 H     1 UNK   0.0000 
 26 H21      4.7890    28.0420   123.5540 H     1 UNK   0.0000 
 27 H22      6.3290    29.3040   124.9180 H     1 UNK   0.0000 
 28 H24      2.0590    24.0360   117.8210 H     1 UNK   0.0000 
 29 H25      1.2450    26.5290   122.6240 H     1 UNK   0.0000 
 30 H27     -1.2160    23.3440   121.1260 H     1 UNK   0.0000 
 31 H28      0.2400    23.0980   119.1450 H     1 UNK   0.0000 
 32 H32      9.3450    31.1400   125.8140 H     1 UNK   0.0000 
 33 H33      7.5880    31.0860   125.7400 H     1 UNK   0.0000 
 34 H34      8.5340    29.5800   125.8040 H     1 UNK   0.0000 
 35 H35      4.1210    25.2390   117.5490 H     1 UNK   0.0000 
@<TRIPOS>BOND
  1   1   2  ar  
  2   1   6  ar  
  3   1  31  1   
  4   2   3  ar  
  5   2  30  1   
  6   3   4  ar  
  7   3  20  1   
  8   4   5  ar  
  9   4  29  1   
 10   5   6  ar  
 11   5  10  1   
 12   6  19  1   
 13   7  11  2   
 14   7  19  1   
 15   7  35  1   
 16   8   9  1   
 17   8  12  am  
 18   8  16  1   
 19   9  10  2   
 20  10  11  1   
 21  11  12  1   
 22  12  21  2   
 23  13  14  ar  
 24  13  18  ar  
 25  13  22  1   
 26  14  15  ar  
 27  14  24  1   
 28  15  16  ar  
 29  15  25  1   
 30  16  17  ar  
 31  17  18  ar  
 32  17  26  1   
 33  18  27  1   
 34  19  28  1   
 35  22  23  1   
 36  23  32  1   
 37  23  33  1   
 38  23  34  1   
@<TRIPOS>SUBSTRUCTURE
  1 UNK   9 GROUP 4 **** **** 0

# MOE 2019.01 (io_trps.svl 2018.10)
